Version 4
SHEET 1 2104 5400
WIRE -5808 256 -5904 256
WIRE -5696 256 -5808 256
WIRE -5456 256 -5584 256
WIRE -5456 352 -5456 256
WIRE -5040 352 -5456 352
WIRE -4656 368 -4768 368
WIRE -4624 368 -4656 368
WIRE -5696 384 -5696 256
WIRE -5584 384 -5584 256
WIRE -5904 400 -5904 256
WIRE -5040 400 -5456 400
WIRE -4624 400 -4624 368
WIRE -5040 448 -5088 448
WIRE -4736 448 -4768 448
WIRE -4736 512 -4736 448
WIRE -4624 512 -4624 480
WIRE -5904 624 -5904 480
WIRE -5696 624 -5696 464
WIRE -5696 624 -5904 624
WIRE -5584 624 -5584 464
WIRE -5472 624 -5584 624
WIRE -5456 624 -5456 400
WIRE -5456 624 -5472 624
WIRE -5904 656 -5904 624
WIRE -5584 656 -5584 624
WIRE -5216 720 -5264 720
WIRE -5904 768 -5904 736
WIRE -5904 768 -5936 768
WIRE -5904 800 -5904 768
WIRE -5584 800 -5584 736
WIRE -5264 832 -5264 720
WIRE -5264 992 -5264 912
FLAG -5456 256 comm+
FLAG -5472 624 comm-
FLAG -5584 800 0
FLAG -5904 800 0
FLAG -5808 256 sig
FLAG -5936 768 GND
IOPIN -5936 768 In
FLAG -5264 992 0
FLAG -5216 720 MIX_PWM
FLAG -4736 512 0
FLAG -4624 512 0
FLAG -4656 368 OUT
FLAG -5088 448 MIX_PWM
SYMBOL ind2 -5712 480 M180
WINDOW 0 36 80 Left 2
WINDOW 3 36 40 Left 2
SYMATTR InstName Lrx1
SYMATTR Value {Lplc}
SYMATTR SpiceLine Rser={R_Lser} Rpar={R_Lpar}
SYMATTR Type ind
SYMBOL ind2 -5600 480 M180
WINDOW 0 36 80 Left 2
WINDOW 3 36 40 Left 2
SYMATTR InstName Lrx
SYMATTR Value {Lplc}
SYMATTR SpiceLine Rser={R_Lser} Rpar={R_Lpar}
SYMATTR Type ind
SYMBOL voltage -5904 384 M0
WINDOW 123 0 0 Left 2
WINDOW 39 0 0 Left 2
WINDOW 3 11 124 Left 2
SYMATTR Value PWL file=IN_TEST_S.csv
SYMATTR InstName V3
SYMBOL res -5600 640 R0
SYMATTR InstName R1
SYMATTR Value 1G
SYMBOL res -5920 640 R0
SYMATTR InstName R2
SYMATTR Value 1m
SYMBOL voltage -5264 816 M0
WINDOW 123 0 0 Left 2
WINDOW 39 0 0 Left 2
WINDOW 3 11 124 Left 2
SYMATTR Value PULSE({mix_off} {mix_on} {mix_delay} {mix_Tedge} {mix_Tedge} {mix_Ton} {mix_Tp})
SYMATTR InstName V4
SYMBOL res -4640 384 R0
SYMATTR InstName R4
SYMATTR Value 100k
SYMBOL PLC_RX_Channel_D1288 -4912 400 R0
SYMATTR InstName X1
TEXT -6368 8 Left 6 !.tran 0 10 0
TEXT -5408 64 Left 5 !.inc RX_Params-JupiterPlus.txt
TEXT -5728 168 Left 2 !.param k=1
TEXT -5720 216 Left 2 !K11 Lrx1 Lrx {k}
TEXT -5400 -40 Left 5 !.inc RX_Sweeps.txt
